*SPEF "ieee 1481-1999"
*DESIGN "SG13CMOS5LTop"
*DATE "18:11:45 Wednesday March 18, 2026"
*VENDOR "The OpenROAD Project"
*PROGRAM "OpenROAD"
*VERSION "26Q1-1929-g7cf7b720fd"
*DESIGN_FLOW "NAME_SCOPE LOCAL" "PIN_CAP NONE"
*DIVIDER /
*DELIMITER :
*BUS_DELIMITER []
*T_UNIT 1 NS
*C_UNIT 1 PF
*R_UNIT 1 OHM
*L_UNIT 1 HENRY

*NAME_MAP
*1 _0000_
*2 _0001_
*3 _0002_
*4 clknet_4_7_0_clock
*5 _0004_
*6 _0005_
*7 _0006_
*8 _0007_
*9 _0008_
*10 _0009_
*11 _0010_
*12 _0011_
*13 _0012_
*14 _0013_
*15 _0014_
*16 _0015_
*17 _0016_
*18 _0017_
*19 _0018_
*20 _0019_
*21 _0020_
*22 _0021_
*23 _0022_
*24 _0023_
*25 _0024_
*26 _0025_
*27 _0026_
*28 _0027_
*29 _0028_
*30 _0029_
*31 _0030_
*32 _0031_
*33 _0032_
*34 _0033_
*35 _0034_
*36 _0035_
*37 _0036_
*38 _0037_
*39 _0038_
*40 _0039_
*41 _0040_
*42 _0041_
*43 _0042_
*44 _0043_
*45 _0044_
*46 _0045_
*47 _0046_
*48 _0047_
*49 _0048_
*50 _0049_
*51 _0050_
*52 _0051_
*53 _0052_
*54 _0053_
*55 _0054_
*56 _0055_
*57 _0056_
*58 _0057_
*59 _0058_
*60 _0059_
*61 _0060_
*62 _0061_
*63 _0062_
*64 _0063_
*65 _0064_
*66 _0065_
*67 _0066_
*68 _0067_
*69 _0068_
*70 _0069_
*71 _0070_
*72 _0071_
*73 _0072_
*74 _0073_
*75 _0074_
*76 _0075_
*77 _0076_
*78 _0077_
*79 _0078_
*80 _0079_
*81 _0080_
*82 _0081_
*83 _0082_
*84 _0083_
*85 _0084_
*86 _0085_
*87 _0086_
*88 _0087_
*89 _0088_
*90 _0089_
*91 _0090_
*92 _0091_
*93 _0092_
*94 _0093_
*95 _0094_
*96 _0095_
*97 _0096_
*98 _0097_
*99 _0098_
*100 _0099_
*101 _0100_
*102 _0101_
*103 _0102_
*104 _0103_
*105 _0104_
*106 _0105_
*107 _0106_
*108 _0107_
*109 _0108_
*110 _0109_
*111 _0110_
*112 _0111_
*113 _0112_
*114 _0113_
*115 _0114_
*116 _0115_
*117 _0116_
*118 _0117_
*119 _0118_
*120 _0119_
*121 _0120_
*122 _0121_
*123 _0122_
*124 _0123_
*125 _0124_
*126 _0125_
*127 _0126_
*128 _0127_
*129 _0128_
*130 _0129_
*131 _0130_
*132 _0131_
*133 _0132_
*134 _0133_
*135 _0134_
*136 _0135_
*137 _0136_
*138 _0137_
*139 _0138_
*140 _0139_
*141 _0140_
*142 _0141_
*143 _0142_
*144 _0143_
*145 _0144_
*146 _0145_
*147 _0146_
*148 _0147_
*149 _0148_
*150 _0149_
*151 _0150_
*152 _0151_
*153 _0152_
*154 _0153_
*155 _0154_
*156 _0155_
*157 _0156_
*158 _0157_
*159 _0158_
*160 _0159_
*161 _0160_
*162 _0161_
*163 _0162_
*164 _0163_
*165 _0164_
*166 _0165_
*167 _0166_
*168 _0167_
*169 _0168_
*170 _0169_
*171 _0170_
*172 _0171_
*173 _0172_
*174 _0173_
*175 _0174_
*176 _0175_
*177 _0176_
*178 _0177_
*179 _0178_
*180 net372
*181 _0180_
*182 _0181_
*183 net371
*184 _0183_
*185 net370
*186 _0185_
*187 net369
*188 _0187_
*189 _0188_
*190 _0189_
*191 _0190_
*192 net368
*193 _0192_
*194 _0193_
*195 _0194_
*196 _0195_
*197 _0196_
*198 _0197_
*199 _0198_
*200 _0199_
*201 _0200_
*202 _0201_
*203 _0202_
*204 _0203_
*205 _0204_
*206 _0205_
*207 _0206_
*208 _0207_
*209 _0208_
*210 _0209_
*211 _0210_
*212 _0211_
*213 _0212_
*214 _0213_
*215 _0214_
*216 _0215_
*217 _0216_
*218 _0217_
*219 _0218_
*220 _0219_
*221 _0220_
*222 _0221_
*223 _0222_
*224 _0223_
*225 _0224_
*226 _0225_
*227 _0226_
*228 _0227_
*229 _0228_
*230 _0229_
*231 _0230_
*232 _0231_
*233 _0232_
*234 _0233_
*235 _0234_
*236 _0235_
*237 _0236_
*238 _0237_
*239 _0238_
*240 _0239_
*241 _0240_
*242 _0241_
*243 _0242_
*244 _0243_
*245 _0244_
*246 _0245_
*247 _0246_
*248 _0247_
*249 _0248_
*250 _0249_
*251 _0250_
*252 _0251_
*253 _0252_
*254 _0253_
*255 _0254_
*256 _0255_
*257 _0256_
*258 _0257_
*259 _0258_
*260 _0259_
*261 _0260_
*262 _0261_
*263 _0262_
*264 _0263_
*265 _0264_
*266 _0265_
*267 _0266_
*268 _0267_
*269 _0268_
*270 _0269_
*271 _0270_
*272 _0271_
*273 _0272_
*274 net367
*275 _0274_
*276 _0275_
*277 _0276_
*278 _0277_
*279 _0278_
*280 _0279_
*281 _0280_
*282 _0281_
*283 _0282_
*284 _0283_
*285 _0284_
*286 _0285_
*287 _0286_
*288 _0287_
*289 _0288_
*290 _0289_
*291 clknet_4_12_0_clock
*292 _0291_
*293 clknet_4_11_0_clock
*294 _0293_
*295 net437
*296 net395
*297 _0296_
*298 _0297_
*299 _0298_
*300 net393
*301 net392
*302 _0301_
*303 net365
*304 _0303_
*305 _0304_
*306 net394
*307 _0306_
*308 _0307_
*309 _0308_
*310 _0309_
*311 net427
*312 net426
*313 _0312_
*314 _0313_
*315 _0314_
*316 _0315_
*317 _0316_
*318 _0317_
*319 _0318_
*320 _0319_
*321 _0320_
*322 net425
*323 _0322_
*324 net438
*325 _0324_
*326 clknet_4_6_0_clock
*327 clknet_4_5_0_clock
*328 _0327_
*329 clknet_4_3_0_clock
*330 clknet_4_2_0_clock
*331 _0330_
*332 _0331_
*333 _0332_
*334 _0333_
*335 clknet_4_9_0_clock
*336 clknet_4_1_0_clock
*337 clknet_4_0_0_clock
*338 _0337_
*339 clknet_0_clock
*340 _0339_
*341 clknet_4_4_0_clock
*342 _0341_
*343 _0342_
*344 _0343_
*345 net429
*346 _0345_
*347 _0346_
*348 net428
*349 _0348_
*350 _0349_
*351 _0350_
*352 _0351_
*353 _0352_
*354 _0353_
*355 _0354_
*356 _0355_
*357 _0356_
*358 _0357_
*359 _0358_
*360 _0359_
*361 _0360_
*362 _0361_
*363 _0362_
*364 net435
*365 _0364_
*366 _0365_
*367 _0366_
*368 _0367_
*369 _0368_
*370 _0369_
*371 _0370_
*372 _0371_
*373 _0372_
*374 _0373_
*375 _0374_
*376 _0375_
*377 _0376_
*378 _0377_
*379 _0378_
*380 _0379_
*381 _0380_
*382 _0381_
*383 _0382_
*384 _0383_
*385 _0384_
*386 _0385_
*387 _0386_
*388 _0387_
*389 _0388_
*390 _0389_
*391 _0390_
*392 _0391_
*393 _0392_
*394 _0393_
*395 _0394_
*396 _0395_
*397 net419
*398 _0397_
*399 _0398_
*400 _0399_
*401 _0400_
*402 _0401_
*403 _0402_
*404 _0403_
*405 _0404_
*406 net434
*407 net433
*408 net418
*409 net420
*410 net417
*411 net432
*412 net416
*413 _0412_
*414 net430
*415 _0414_
*416 _0415_
*417 _0416_
*418 net415
*419 _0418_
*420 net431
*421 _0420_
*422 _0421_
*423 net414
*424 _0423_
*425 _0424_
*426 net436
*427 _0426_
*428 net413
*429 _0428_
*430 _0429_
*431 _0430_
*432 _0431_
*433 _0432_
*434 net412
*435 _0434_
*436 _0435_
*437 clknet_5_2__leaf_clock
*438 _0437_
*439 _0438_
*440 clknet_5_1__leaf_clock
*441 _0440_
*442 _0441_
*443 _0442_
*444 _0443_
*445 _0444_
*446 _0445_
*447 _0446_
*448 _0447_
*449 _0448_
*450 _0449_
*451 _0450_
*452 clknet_4_8_0_clock
*453 _0452_
*454 _0453_
*455 _0454_
*456 _0455_
*457 _0456_
*458 _0457_
*459 _0458_
*460 _0459_
*461 _0460_
*462 _0461_
*463 _0462_
*464 _0463_
*465 _0464_
*466 _0465_
*467 _0466_
*468 _0467_
*469 _0468_
*470 _0469_
*471 _0470_
*472 _0471_
*473 _0472_
*474 _0473_
*475 _0474_
*476 _0475_
*477 _0476_
*478 _0477_
*479 _0478_
*480 _0479_
*481 _0480_
*482 _0481_
*483 _0482_
*484 _0483_
*485 _0484_
*486 _0485_
*487 _0486_
*488 _0487_
*489 _0488_
*490 _0489_
*491 _0490_
*492 _0491_
*493 _0492_
*494 net411
*495 _0494_
*496 clknet_5_0__leaf_clock
*497 clknet_4_15_0_clock
*498 clknet_4_10_0_clock
*499 clknet_5_3__leaf_clock
*500 _0499_
*501 net424
*502 net423
*503 _0502_
*504 _0503_
*505 net421
*506 _0505_
*507 _0506_
*508 _0507_
*509 net410
*510 _0509_
*511 _0510_
*512 net422
*513 _0512_
*514 _0513_
*515 _0514_
*516 _0515_
*517 net408
*518 _0517_
*519 net405
*520 _0519_
*521 net407
*522 _0521_
*523 net406
*524 _0523_
*525 net402
*526 _0525_
*527 _0526_
*528 _0527_
*529 _0528_
*530 net401
*531 _0530_
*532 clknet_5_8__leaf_clock
*533 net399
*534 _0533_
*535 _0534_
*536 net403
*537 _0536_
*538 _0537_
*539 clknet_5_7__leaf_clock
*540 clknet_5_6__leaf_clock
*541 _0540_
*542 clknet_5_5__leaf_clock
*543 _0542_
*544 _0543_
*545 clknet_5_4__leaf_clock
*546 net400
*547 _0546_
*548 _0547_
*549 _0548_
*550 _0549_
*551 _0550_
*552 _0551_
*553 net409
*554 _0553_
*555 _0554_
*556 _0555_
*557 _0556_
*558 _0557_
*559 _0558_
*560 net396
*561 _0560_
*562 net390
*563 _0562_
*564 net391
*565 _0564_
*566 net389
*567 _0566_
*568 _0567_
*569 _0568_
*570 _0569_
*571 _0570_
*572 _0571_
*573 net397
*574 _0573_
*575 _0574_
*576 _0575_
*577 _0576_
*578 _0577_
*579 _0578_
*580 _0579_
*581 _0580_
*582 _0581_
*583 _0582_
*584 _0583_
*585 _0584_
*586 _0585_
*587 _0586_
*588 _0587_
*589 _0588_
*590 _0589_
*591 _0590_
*592 _0591_
*593 _0592_
*594 _0593_
*595 _0594_
*596 _0595_
*597 _0596_
*598 _0597_
*599 _0598_
*600 _0599_
*601 _0600_
*602 _0601_
*603 _0602_
*604 _0603_
*605 _0604_
*606 _0605_
*607 _0606_
*608 _0607_
*609 _0608_
*610 _0609_
*611 _0610_
*612 _0611_
*613 _0612_
*614 _0613_
*615 _0614_
*616 _0615_
*617 _0616_
*618 _0617_
*619 _0618_
*620 _0619_
*621 _0620_
*622 _0621_
*623 _0622_
*624 _0623_
*625 _0624_
*626 _0625_
*627 _0626_
*628 _0627_
*629 _0628_
*630 _0629_
*631 _0630_
*632 _0631_
*633 _0632_
*634 _0633_
*635 _0634_
*636 _0635_
*637 _0636_
*638 _0637_
*639 _0638_
*640 _0639_
*641 _0640_
*642 _0641_
*643 _0642_
*644 _0643_
*645 _0644_
*646 _0645_
*647 _0646_
*648 _0647_
*649 _0648_
*650 _0649_
*651 _0650_
*652 _0651_
*653 _0652_
*654 _0653_
*655 _0654_
*656 _0655_
*657 _0656_
*658 _0657_
*659 _0658_
*660 _0659_
*661 _0660_
*662 _0661_
*663 _0662_
*664 _0663_
*665 _0664_
*666 _0665_
*667 _0666_
*668 _0667_
*669 _0668_
*670 _0669_
*671 _0670_
*672 _0671_
*673 _0672_
*674 _0673_
*675 net388
*676 _0675_
*677 _0676_
*678 _0677_
*679 _0678_
*680 _0679_
*681 _0680_
*682 _0681_
*683 _0682_
*684 _0683_
*685 _0684_
*686 _0685_
*687 _0686_
*688 _0687_
*689 _0688_
*690 _0689_
*691 _0690_
*692 _0691_
*693 _0692_
*694 _0693_
*695 _0694_
*696 _0695_
*697 _0696_
*698 _0697_
*699 net398
*700 _0699_
*701 net387
*702 net386
*703 _0702_
*704 _0703_
*705 _0704_
*706 net385
*707 net384
*708 _0707_
*709 net383
*710 net404
*711 net382
*712 _0711_
*713 _0712_
*714 _0713_
*715 _0714_
*716 _0715_
*717 clknet_5_9__leaf_clock
*718 _0717_
*719 _0718_
*720 _0719_
*721 _0720_
*722 _0721_
*723 _0722_
*724 net381
*725 _0724_
*726 net380
*727 net379
*728 _0727_
*729 clknet_5_10__leaf_clock
*730 _0729_
*731 _0730_
*732 _0731_
*733 net378
*734 _0733_
*735 _0734_
*736 net377
*737 _0736_
*738 _0737_
*739 _0738_
*740 _0739_
*741 _0740_
*742 _0741_
*743 _0742_
*744 _0743_
*745 _0744_
*746 _0745_
*747 _0746_
*748 _0747_
*749 _0748_
*750 _0749_
*751 _0750_
*752 _0751_
*753 _0752_
*754 _0753_
*755 _0754_
*756 _0755_
*757 _0756_
*758 _0757_
*759 _0758_
*760 _0759_
*761 _0760_
*762 _0761_
*763 _0762_
*764 net376
*765 _0764_
*766 _0765_
*767 _0766_
*768 _0767_
*769 net375
*770 _0769_
*771 _0770_
*772 _0771_
*773 _0772_
*774 _0773_
*775 _0774_
*776 _0775_
*777 _0776_
*778 _0777_
*779 _0778_
*780 _0779_
*781 _0780_
*782 _0781_
*783 _0782_
*784 net374
*785 _0784_
*786 _0785_
*787 _0786_
*788 _0787_
*789 _0788_
*790 _0789_
*791 _0790_
*792 _0791_
*793 _0792_
*794 _0793_
*795 _0794_
*796 _0795_
*797 _0796_
*798 _0797_
*799 _0798_
*800 _0799_
*801 _0800_
*802 _0801_
*803 _0802_
*804 _0803_
*805 _0804_
*806 _0805_
*807 _0806_
*808 _0807_
*809 _0808_
*810 _0809_
*811 _0810_
*812 _0811_
*813 _0812_
*814 _0813_
*815 net373
*816 _0815_
*817 _0816_
*818 _0817_
*819 _0818_
*820 _0819_
*821 _0820_
*822 _0821_
*823 _0822_
*824 _0823_
*825 _0824_
*826 _0825_
*827 _0826_
*828 _0827_
*829 _0828_
*830 _0829_
*831 _0830_
*832 _0831_
*833 _0832_
*834 _0833_
*835 net176
*836 net3
*837 clock
*838 io_address_0_PAD
*839 io_address_1_PAD
*840 io_address_2_PAD
*841 io_clock_PAD
*842 io_gpio_0_PAD
*843 io_gpio_1_PAD
*844 io_gpio_2_PAD
*845 io_gpio_3_PAD
*846 io_gpio_4_PAD
*847 io_gpio_5_PAD
*848 io_gpio_6_PAD
*849 io_gpio_7_PAD
*850 io_i2c_interrupt_PAD
*851 io_i2c_scl_PAD
*852 io_i2c_sda_PAD
*853 io_reset_PAD
*854 reset
*855 sg13cmos5l_IOPad_io_address_0_p2c
*856 sg13cmos5l_IOPad_io_address_1_p2c
*857 sg13cmos5l_IOPad_io_address_2_p2c
*858 sg13cmos5l_IOPad_io_gpio_0_c2p
*859 sg13cmos5l_IOPad_io_gpio_0_c2p_en
*860 sg13cmos5l_IOPad_io_gpio_0_p2c
*861 sg13cmos5l_IOPad_io_gpio_1_c2p
*862 sg13cmos5l_IOPad_io_gpio_1_c2p_en
*863 sg13cmos5l_IOPad_io_gpio_1_p2c
*864 sg13cmos5l_IOPad_io_gpio_2_c2p
*865 sg13cmos5l_IOPad_io_gpio_2_c2p_en
*866 sg13cmos5l_IOPad_io_gpio_2_p2c
*867 sg13cmos5l_IOPad_io_gpio_3_c2p
*868 sg13cmos5l_IOPad_io_gpio_3_c2p_en
*869 sg13cmos5l_IOPad_io_gpio_3_p2c
*870 sg13cmos5l_IOPad_io_gpio_4_c2p
*871 sg13cmos5l_IOPad_io_gpio_4_c2p_en
*872 sg13cmos5l_IOPad_io_gpio_4_p2c
*873 sg13cmos5l_IOPad_io_gpio_5_c2p
*874 sg13cmos5l_IOPad_io_gpio_5_c2p_en
*875 sg13cmos5l_IOPad_io_gpio_5_p2c
*876 sg13cmos5l_IOPad_io_gpio_6_c2p
*877 sg13cmos5l_IOPad_io_gpio_6_c2p_en
*878 sg13cmos5l_IOPad_io_gpio_6_p2c
*879 sg13cmos5l_IOPad_io_gpio_7_c2p
*880 sg13cmos5l_IOPad_io_gpio_7_c2p_en
*881 sg13cmos5l_IOPad_io_gpio_7_p2c
*882 sg13cmos5l_IOPad_io_i2c_scl_p2c
*883 sg13cmos5l_IOPad_io_i2c_sda_p2c
*884 system_expander\.gpioCtrl_1\.io_gpio_pins_read_buffercc_io_dataOut\[0\]
*885 system_expander\.gpioCtrl_1\.io_gpio_pins_read_buffercc_io_dataOut\[1\]
*886 system_expander\.gpioCtrl_1\.io_gpio_pins_read_buffercc_io_dataOut\[2\]
*887 system_expander\.gpioCtrl_1\.io_gpio_pins_read_buffercc_io_dataOut\[3\]
*888 system_expander\.gpioCtrl_1\.io_gpio_pins_read_buffercc_io_dataOut\[4\]
*889 system_expander\.gpioCtrl_1\.io_gpio_pins_read_buffercc_io_dataOut\[5\]
*890 system_expander\.gpioCtrl_1\.io_gpio_pins_read_buffercc_io_dataOut\[6\]
*891 system_expander\.gpioCtrl_1\.io_gpio_pins_read_buffercc_io_dataOut\[7\]
*892 system_expander\.gpioCtrl_1\.last\[0\]
*893 system_expander\.gpioCtrl_1\.last\[1\]
*894 system_expander\.gpioCtrl_1\.last\[2\]
*895 system_expander\.gpioCtrl_1\.last\[3\]
*896 system_expander\.gpioCtrl_1\.last\[4\]
*897 system_expander\.gpioCtrl_1\.last\[5\]
*898 system_expander\.gpioCtrl_1\.last\[6\]
*899 system_expander\.gpioCtrl_1\.last\[7\]
*900 system_expander\.i2cConfig_latch
*901 system_expander\.i2cConfig_latchedAddress\[0\]
*902 system_expander\.i2cConfig_latchedAddress\[1\]
*903 system_expander\.i2cConfig_latchedAddress\[2\]
*904 system_expander\.i2cCtrl\._zz_ctrl_sdaWrite\[0\]
*905 system_expander\.i2cCtrl\._zz_ctrl_sdaWrite\[1\]
*906 system_expander\.i2cCtrl\._zz_ctrl_sdaWrite\[2\]
*907 system_expander\.i2cCtrl\._zz_ctrl_sdaWrite\[3\]
*908 system_expander\.i2cCtrl\._zz_ctrl_sdaWrite\[4\]
*909 system_expander\.i2cCtrl\._zz_ctrl_sdaWrite\[5\]
*910 system_expander\.i2cCtrl\._zz_ctrl_sdaWrite\[6\]
*911 system_expander\.i2cCtrl\._zz_ctrl_sdaWrite\[7\]
*912 system_expander\.i2cCtrl\._zz_ctrl_sdaWrite_1\[0\]
*913 system_expander\.i2cCtrl\._zz_ctrl_sdaWrite_1\[1\]
*914 system_expander\.i2cCtrl\._zz_ctrl_sdaWrite_1\[2\]
*915 system_expander\.i2cCtrl\._zz_filter_sampler_sclSamples_0
*916 system_expander\.i2cCtrl\._zz_filter_sampler_sclSamples_1
*917 system_expander\.i2cCtrl\._zz_filter_sampler_sclSamples_2
*918 system_expander\.i2cCtrl\._zz_filter_sampler_sdaSamples_0
*919 system_expander\.i2cCtrl\._zz_filter_sampler_sdaSamples_1
*920 system_expander\.i2cCtrl\._zz_filter_sampler_sdaSamples_2
*921 system_expander\.i2cCtrl\.ctrl_address\[0\]
*922 system_expander\.i2cCtrl\.ctrl_address\[1\]
*923 system_expander\.i2cCtrl\.ctrl_address\[2\]
*924 system_expander\.i2cCtrl\.ctrl_address\[3\]
*925 system_expander\.i2cCtrl\.ctrl_address\[4\]
*926 system_expander\.i2cCtrl\.ctrl_address\[5\]
*927 system_expander\.i2cCtrl\.ctrl_address\[6\]
*928 system_expander\.i2cCtrl\.ctrl_bitCounter\[3\]
*929 system_expander\.i2cCtrl\.ctrl_bitCounter\[4\]
*930 system_expander\.i2cCtrl\.ctrl_cmdLock
*931 system_expander\.i2cCtrl\.ctrl_data\[0\]
*932 system_expander\.i2cCtrl\.ctrl_frameCounter\[0\]
*933 system_expander\.i2cCtrl\.ctrl_frameCounter\[1\]
*934 system_expander\.i2cCtrl\.ctrl_frameCounter\[2\]
*935 system_expander\.i2cCtrl\.ctrl_frameCounter\[3\]
*936 system_expander\.i2cCtrl\.ctrl_read
*937 system_expander\.i2cCtrl\.ctrl_response_error
*938 system_expander\.i2cCtrl\.ctrl_sdaWrite
*939 system_expander\.i2cCtrl\.ctrl_state\[0\]
*940 system_expander\.i2cCtrl\.ctrl_state\[1\]
*941 system_expander\.i2cCtrl\.ctrl_state\[2\]
*942 system_expander\.i2cCtrl\.ctrl_transmission
*943 system_expander\.i2cCtrl\.filter_clockDivider\.io_tick
*944 system_expander\.i2cCtrl\.filter_scl
*945 system_expander\.i2cCtrl\.filter_scl_regNext
*946 system_expander\.i2cCtrl\.filter_sda
*947 system_expander\.i2cCtrl\.filter_sda_regNext
*948 system_expander\.i2cCtrl\.io_i2c_interrupts\[0\]
*949 system_expander\.i2cCtrl\.io_rsp_payload_data\[0\]
*950 system_expander\.i2cCtrl\.io_rsp_payload_data\[1\]
*951 system_expander\.i2cCtrl\.io_rsp_payload_data\[2\]
*952 system_expander\.i2cCtrl\.io_rsp_payload_data\[3\]
*953 system_expander\.i2cCtrl\.io_rsp_payload_data\[4\]
*954 system_expander\.i2cCtrl\.io_rsp_payload_data\[5\]
*955 system_expander\.i2cCtrl\.io_rsp_payload_data\[6\]
*956 system_expander\.i2cCtrl\.io_rsp_payload_data\[7\]
*957 system_expander\.i2cCtrl\.io_rsp_payload_error
*958 system_expander\.i2cCtrl\.timeout_transmission
*959 system_expander\.i2cCtrl\.timeout_value\[0\]
*960 system_expander\.i2cCtrl\.timeout_value\[10\]
*961 system_expander\.i2cCtrl\.timeout_value\[11\]
*962 system_expander\.i2cCtrl\.timeout_value\[12\]
*963 system_expander\.i2cCtrl\.timeout_value\[13\]
*964 system_expander\.i2cCtrl\.timeout_value\[14\]
*965 system_expander\.i2cCtrl\.timeout_value\[15\]
*966 system_expander\.i2cCtrl\.timeout_value\[1\]
*967 system_expander\.i2cCtrl\.timeout_value\[2\]
*968 system_expander\.i2cCtrl\.timeout_value\[3\]
*969 system_expander\.i2cCtrl\.timeout_value\[4\]
*970 system_expander\.i2cCtrl\.timeout_value\[5\]
*971 system_expander\.i2cCtrl\.timeout_value\[6\]
*972 system_expander\.i2cCtrl\.timeout_value\[7\]
*973 system_expander\.i2cCtrl\.timeout_value\[8\]
*974 system_expander\.i2cCtrl\.timeout_value\[9\]
*975 system_expander\.irq_fall_ctrl\.io_masks\[0\]
*976 system_expander\.irq_fall_ctrl\.io_masks\[1\]
*977 system_expander\.irq_fall_ctrl\.io_masks\[2\]
*978 system_expander\.irq_fall_ctrl\.io_masks\[3\]
*979 system_expander\.irq_fall_ctrl\.io_masks\[4\]
*980 system_expander\.irq_fall_ctrl\.io_masks\[5\]
*981 system_expander\.irq_fall_ctrl\.io_masks\[6\]
*982 system_expander\.irq_fall_ctrl\.io_masks\[7\]
*983 system_expander\.irq_fall_ctrl\.pendings\[0\]
*984 system_expander\.irq_fall_ctrl\.pendings\[1\]
*985 system_expander\.irq_fall_ctrl\.pendings\[2\]
*986 system_expander\.irq_fall_ctrl\.pendings\[3\]
*987 system_expander\.irq_fall_ctrl\.pendings\[4\]
*988 system_expander\.irq_fall_ctrl\.pendings\[5\]
*989 system_expander\.irq_fall_ctrl\.pendings\[6\]
*990 system_expander\.irq_fall_ctrl\.pendings\[7\]
*991 system_expander\.irq_high_ctrl\.io_masks\[0\]
*992 system_expander\.irq_high_ctrl\.io_masks\[1\]
*993 system_expander\.irq_high_ctrl\.io_masks\[2\]
*994 system_expander\.irq_high_ctrl\.io_masks\[3\]
*995 system_expander\.irq_high_ctrl\.io_masks\[4\]
*996 system_expander\.irq_high_ctrl\.io_masks\[5\]
*997 system_expander\.irq_high_ctrl\.io_masks\[6\]
*998 system_expander\.irq_high_ctrl\.io_masks\[7\]
*999 system_expander\.irq_high_ctrl\.pendings\[0\]
*1000 system_expander\.irq_high_ctrl\.pendings\[1\]
*1001 system_expander\.irq_high_ctrl\.pendings\[2\]
*1002 system_expander\.irq_high_ctrl\.pendings\[3\]
*1003 system_expander\.irq_high_ctrl\.pendings\[4\]
*1004 system_expander\.irq_high_ctrl\.pendings\[5\]
*1005 system_expander\.irq_high_ctrl\.pendings\[6\]
*1006 system_expander\.irq_high_ctrl\.pendings\[7\]
*1007 system_expander\.irq_low_ctrl\.io_masks\[0\]
*1008 system_expander\.irq_low_ctrl\.io_masks\[1\]
*1009 system_expander\.irq_low_ctrl\.io_masks\[2\]
*1010 system_expander\.irq_low_ctrl\.io_masks\[3\]
*1011 system_expander\.irq_low_ctrl\.io_masks\[4\]
*1012 system_expander\.irq_low_ctrl\.io_masks\[5\]
*1013 system_expander\.irq_low_ctrl\.io_masks\[6\]
*1014 system_expander\.irq_low_ctrl\.io_masks\[7\]
*1015 system_expander\.irq_low_ctrl\.pendings\[0\]
*1016 system_expander\.irq_low_ctrl\.pendings\[1\]
*1017 system_expander\.irq_low_ctrl\.pendings\[2\]
*1018 system_expander\.irq_low_ctrl\.pendings\[3\]
*1019 system_expander\.irq_low_ctrl\.pendings\[4\]
*1020 system_expander\.irq_low_ctrl\.pendings\[5\]
*1021 system_expander\.irq_low_ctrl\.pendings\[6\]
*1022 system_expander\.irq_low_ctrl\.pendings\[7\]
*1023 system_expander\.irq_rise_ctrl\.io_masks\[0\]
*1024 system_expander\.irq_rise_ctrl\.io_masks\[1\]
*1025 system_expander\.irq_rise_ctrl\.io_masks\[2\]
*1026 system_expander\.irq_rise_ctrl\.io_masks\[3\]
*1027 system_expander\.irq_rise_ctrl\.io_masks\[4\]
*1028 system_expander\.irq_rise_ctrl\.io_masks\[5\]
*1029 system_expander\.irq_rise_ctrl\.io_masks\[6\]
*1030 system_expander\.irq_rise_ctrl\.io_masks\[7\]
*1031 system_expander\.irq_rise_ctrl\.pendings\[0\]
*1032 system_expander\.irq_rise_ctrl\.pendings\[1\]
*1033 system_expander\.irq_rise_ctrl\.pendings\[2\]
*1034 system_expander\.irq_rise_ctrl\.pendings\[3\]
*1035 system_expander\.irq_rise_ctrl\.pendings\[4\]
*1036 system_expander\.irq_rise_ctrl\.pendings\[5\]
*1037 system_expander\.irq_rise_ctrl\.pendings\[6\]
*1038 system_expander\.irq_rise_ctrl\.pendings\[7\]
*1039 system_expander\.link_regAddr\[0\]
*1040 system_expander\.link_regAddr\[1\]
*1041 system_expander\.link_regAddr\[2\]
*1042 system_expander\.link_regAddr\[3\]
*1043 system_expander\.link_regAddr\[4\]
*1044 system_expander\.link_regAddr\[5\]
*1045 system_expander\.link_regAddr\[6\]
*1046 system_expander\.link_regAddr\[7\]
*1047 system_expander\.link_state\[0\]
*1048 system_expander\.link_state\[1\]
*1049 system_expander\.link_state\[2\]
*1050 system_expander\.link_state\[3\]
*1051 system_expander\.link_state\[4\]
*1052 net184
*1053 system_expander\.i2cCtrl\.io_i2c_scl_read_buffercc/_0_
*1054 system_expander\.i2cCtrl\.io_i2c_scl_read_buffercc/_1_
*1055 net186
*1056 system_expander\.i2cCtrl\.io_i2c_scl_read_buffercc/buffers_0
*1057 system_expander\.i2cCtrl\.io_i2c_sda_read_buffercc/_0_
*1058 system_expander\.i2cCtrl\.io_i2c_sda_read_buffercc/_1_
*1059 clknet_4_13_0_clock
*1060 system_expander\.i2cCtrl\.io_i2c_sda_read_buffercc/buffers_0
*1065 net
*1066 net1
*1067 net2
*1068 net4
*1069 net5
*1070 net6
*1071 net7
*1072 net8
*1073 net9
*1074 net10
*1075 net11
*1076 net12
*1077 net13
*1078 net14
*1079 net15
*1080 net16
*1081 net17
*1082 net18
*1083 net19
*1084 net20
*1085 net21
*1086 net22
*1087 net23
*1088 net24
*1089 net25
*1090 net26
*1091 net27
*1092 net28
*1093 net29
*1094 net30
*1095 net31
*1096 net32
*1097 net33
*1098 net34
*1099 net35
*1100 net36
*1101 net37
*1102 net38
*1103 net39
*1104 net40
*1105 net41
*1106 net42
*1107 net43
*1108 net44
*1109 net45
*1110 net46
*1111 net47
*1112 net48
*1113 net49
*1114 net50
*1115 net51
*1116 net52
*1117 net53
*1118 net54
*1119 net55
*1120 net56
*1121 net57
*1122 net58
*1123 net59
*1124 net60
*1125 net61
*1126 net62
*1127 net63
*1128 net64
*1129 net65
*1130 net66
*1131 net67
*1132 net68
*1133 net69
*1134 net70
*1135 net71
*1136 net72
*1137 net73
*1138 net74
*1139 net75
*1140 net76
*1141 net77
*1142 net78
*1143 net79
*1144 net80
*1145 net81
*1146 net82
*1147 net83
*1148 net84
*1149 net85
*1150 net86
*1151 net87
*1152 net88
*1153 net89
*1154 net90
*1155 net91
*1156 net92
*1157 net93
*1158 net94
*1159 net95
*1160 net96
*1161 net97
*1162 net98
*1163 net99
*1164 net100
*1165 net101
*1166 net102
*1167 net103
*1168 net104
*1169 net105
*1170 net106
*1171 net107
*1172 net108
*1173 net109
*1174 net110
*1175 net111
*1176 net112
*1177 net113
*1178 net114
*1179 net115
*1180 net116
*1181 net117
*1182 net118
*1183 net119
*1184 net120
*1185 net121
*1186 net122
*1187 net123
*1188 net124
*1189 net125
*1190 net126
*1191 net127
*1192 net128
*1193 net129
*1194 net130
*1195 net131
*1196 net132
*1197 net133
*1198 net134
*1199 net135
*1200 net136
*1201 net137
*1202 net138
*1203 net139
*1204 net140
*1205 net141
*1206 net142
*1207 net143
*1208 net144
*1209 net145
*1210 net146
*1211 net147
*1212 net148
*1213 net149
*1214 net150
*1215 net151
*1216 net152
*1217 net153
*1218 net154
*1219 net155
*1220 net156
*1221 net157
*1222 net158
*1223 net159
*1224 net160
*1225 net161
*1226 net162
*1227 net163
*1228 net164
*1229 net165
*1230 net166
*1231 net167
*1232 net168
*1233 net169
*1234 net170
*1235 net171
*1236 net172
*1237 net173
*1238 net174
*1239 net175
*1240 net177
*1241 net178
*1242 net179
*1243 net180
*1244 net181
*1245 net182
*1246 net183
*1247 net185
*1248 net187
*1249 clknet_4_14_0_clock
*1250 net366
*1251 clknet_5_11__leaf_clock
*1252 clknet_5_12__leaf_clock
*1253 clknet_5_13__leaf_clock
*1254 clknet_5_14__leaf_clock
*1255 clknet_5_15__leaf_clock
*1256 clknet_5_16__leaf_clock
*1257 clknet_5_17__leaf_clock
*1258 clknet_5_18__leaf_clock
*1259 clknet_5_19__leaf_clock
*1260 clknet_5_20__leaf_clock
*1261 clknet_5_21__leaf_clock
*1262 clknet_5_22__leaf_clock
*1263 clknet_5_23__leaf_clock
*1264 clknet_5_24__leaf_clock
*1265 clknet_5_25__leaf_clock
*1266 clknet_5_26__leaf_clock
*1267 clknet_5_27__leaf_clock
*1268 clknet_5_28__leaf_clock
*1269 clknet_5_29__leaf_clock
*1270 clknet_5_30__leaf_clock
*1271 clknet_5_31__leaf_clock
*1272 clkbuf_4_12_0_clock
*1273 _0837_
*1274 clkbuf_4_11_0_clock
*1275 _0839_
*1276 place438
*1277 place396
*1278 _0842_
*1279 _0843_
*1280 _0844_
*1281 place394
*1282 place393
*1283 _0847_
*1284 place366
*1285 _0849_
*1286 _0850_
*1287 place395
*1288 _0852_
*1289 _0853_
*1290 _0854_
*1291 _0855_
*1292 place428
*1293 place427
*1294 _0858_
*1295 _0859_
*1296 _0860_
*1297 _0861_
*1298 _0862_
*1299 _0863_
*1300 _0864_
*1301 _0865_
*1302 _0866_
*1303 _0867_
*1304 _0868_
*1305 place426
*1306 _0870_
*1307 _0871_
*1308 place439
*1309 _0873_
*1310 clkbuf_4_7_0_clock
*1311 clkbuf_4_6_0_clock
*1312 clkbuf_4_5_0_clock
*1313 _0877_
*1314 clkbuf_4_3_0_clock
*1315 clkbuf_4_2_0_clock
*1316 _0880_
*1317 _0881_
*1318 _0882_
*1319 _0883_
*1320 _0884_
*1321 _0885_
*1322 _0886_
*1323 clkbuf_4_9_0_clock
*1324 clkbuf_4_1_0_clock
*1325 clkbuf_4_0_0_clock
*1326 _0890_
*1327 clkbuf_0_clock
*1328 _0892_
*1329 clkbuf_4_4_0_clock
*1330 _0894_
*1331 _0895_
*1332 _0896_
*1333 _0897_
*1334 place430
*1335 _0899_
*1336 _0900_
*1337 _0901_
*1338 place429
*1339 _0903_
*1340 _0904_
*1341 _0905_
*1342 _0906_
*1343 _0907_
*1344 _0908_
*1345 _0909_
*1346 _0910_
*1347 _0911_
*1348 _0912_
*1349 _0913_
*1350 _0914_
*1351 _0915_
*1352 _0916_
*1353 _0917_
*1354 _0918_
*1355 _0919_
*1356 place436
*1357 _0921_
*1358 _0922_
*1359 _0923_
*1360 _0924_
*1361 _0925_
*1362 _0926_
*1363 _0927_
*1364 _0928_
*1365 _0929_
*1366 _0930_
*1367 _0931_
*1368 _0932_
*1369 _0933_
*1370 _0934_
*1371 _0935_
*1372 _0936_
*1373 _0937_
*1374 _0938_
*1375 _0939_
*1376 _0940_
*1377 _0941_
*1378 _0942_
*1379 _0943_
*1380 _0944_
*1381 _0945_
*1382 _0946_
*1383 _0947_
*1384 _0948_
*1385 _0949_
*1386 _0950_
*1387 _0951_
*1388 _0952_
*1389 _0953_
*1390 _0954_
*1391 _0955_
*1392 _0956_
*1393 place420
*1394 _0958_
*1395 _0959_
*1396 _0960_
*1397 _0961_
*1398 _0962_
*1399 _0963_
*1400 _0964_
*1401 _0965_
*1402 _0966_
*1403 _0967_
*1404 place435
*1405 place434
*1406 place419
*1407 place421
*1408 _0972_
*1409 place418
*1410 place433
*1411 _0975_
*1412 place417
*1413 _0977_
*1414 _0978_
*1415 _0979_
*1416 place431
*1417 _0981_
*1418 _0982_
*1419 _0983_
*1420 _0984_
*1421 _0985_
*1422 _0986_
*1423 _0987_
*1424 _0988_
*1425 _0989_
*1426 _0990_
*1427 place416
*1428 _0992_
*1429 place432
*1430 _0994_
*1431 _0995_
*1432 place415
*1433 _0997_
*1434 _0998_
*1435 place437
*1436 _1000_
*1437 place414
*1438 _1002_
*1439 _1003_
*1440 _1004_
*1441 _1005_
*1442 _1006_
*1443 place413
*1444 _1008_
*1445 _1009_
*1446 clkbuf_5_2__f_clock
*1447 _1011_
*1448 _1012_
*1449 _1013_
*1450 clkbuf_5_1__f_clock
*1451 _1015_
*1452 _1016_
*1453 _1017_
*1454 _1018_
*1455 _1019_
*1456 _1020_
*1457 _1021_
*1458 _1022_
*1459 _1023_
*1460 _1024_
*1461 _1025_
*1462 _1026_
*1463 clkbuf_4_8_0_clock
*1464 _1028_
*1465 _1029_
*1466 _1030_
*1467 _1031_
*1468 _1032_
*1469 _1033_
*1470 _1034_
*1471 _1035_
*1472 _1036_
*1473 _1037_
*1474 _1038_
*1475 _1039_
*1476 _1040_
*1477 _1041_
*1478 _1042_
*1479 _1043_
*1480 _1044_
*1481 _1045_
*1482 _1046_
*1483 _1047_
*1484 _1048_
*1485 _1049_
*1486 _1050_
*1487 _1051_
*1488 _1052_
*1489 _1053_
*1490 _1054_
*1491 _1055_
*1492 _1056_
*1493 _1057_
*1494 _1058_
*1495 _1059_
*1496 _1060_
*1497 _1061_
*1498 _1062_
*1499 _1063_
*1500 _1064_
*1501 _1065_
*1502 _1066_
*1503 _1067_
*1504 _1068_
*1505 _1069_
*1506 _1070_
*1507 _1071_
*1508 _1072_
*1509 _1073_
*1510 _1074_
*1511 _1075_
*1512 _1076_
*1513 _1077_
*1514 _1078_
*1515 _1079_
*1516 _1080_
*1517 _1081_
*1518 place412
*1519 _1083_
*1520 clkbuf_5_0__f_clock
*1521 clkbuf_4_15_0_clock
*1522 clkbuf_4_10_0_clock
*1523 clkbuf_5_3__f_clock
*1524 _1088_
*1525 place425
*1526 place424
*1527 _1091_
*1528 _1092_
*1529 place422
*1530 _1094_
*1531 _1095_
*1532 _1096_
*1533 place411
*1534 _1098_
*1535 _1099_
*1536 place423
*1537 _1101_
*1538 _1102_
*1539 _1103_
*1540 _1104_
*1541 place409
*1542 _1106_
*1543 place406
*1544 _1108_
*1545 place408
*1546 _1110_
*1547 place407
*1548 _1112_
*1549 place403
*1550 _1114_
*1551 _1115_
*1552 _1116_
*1553 _1117_
*1554 place402
*1555 _1119_
*1556 clkbuf_5_8__f_clock
*1557 place400
*1558 _1122_
*1559 _1123_
*1560 place404
*1561 _1125_
*1562 _1126_
*1563 clkbuf_5_7__f_clock
*1564 clkbuf_5_6__f_clock
*1565 _1129_
*1566 clkbuf_5_5__f_clock
*1567 _1131_
*1568 _1132_
*1569 clkbuf_5_4__f_clock
*1570 place401
*1571 _1135_
*1572 _1136_
*1573 _1137_
*1574 _1138_
*1575 _1139_
*1576 _1140_
*1577 place410
*1578 _1142_
*1579 _1143_
*1580 _1144_
*1581 _1145_
*1582 _1146_
*1583 _1147_
*1584 place397
*1585 _1149_
*1586 _1150_
*1587 place391
*1588 _1152_
*1589 place392
*1590 _1154_
*1591 place390
*1592 _1156_
*1593 _1157_
*1594 _1158_
*1595 _1159_
*1596 _1160_
*1597 _1161_
*1598 place398
*1599 _1163_
*1600 _1164_
*1601 _1165_
*1602 _1166_
*1603 _1167_
*1604 _1168_
*1605 _1169_
*1606 _1170_
*1607 _1171_
*1608 _1172_
*1609 _1173_
*1610 _1174_
*1611 _1175_
*1612 _1176_
*1613 _1177_
*1614 _1178_
*1615 _1179_
*1616 _1180_
*1617 _1181_
*1618 _1182_
*1619 _1183_
*1620 _1184_
*1621 _1185_
*1622 _1186_
*1623 _1187_
*1624 _1188_
*1625 _1189_
*1626 _1190_
*1627 _1191_
*1628 _1192_
*1629 _1193_
*1630 _1194_
*1631 _1195_
*1632 _1196_
*1633 _1197_
*1634 _1198_
*1635 _1199_
*1636 _1200_
*1637 _1201_
*1638 _1202_
*1639 _1203_
*1640 _1204_
*1641 _1205_
*1642 _1206_
*1643 _1207_
*1644 _1208_
*1645 _1209_
*1646 _1210_
*1647 _1211_
*1648 _1212_
*1649 _1213_
*1650 _1214_
*1651 _1215_
*1652 _1216_
*1653 _1217_
*1654 _1218_
*1655 _1219_
*1656 _1220_
*1657 _1221_
*1658 _1222_
*1659 _1223_
*1660 _1224_
*1661 _1225_
*1662 _1226_
*1663 _1227_
*1664 _1228_
*1665 _1229_
*1666 _1230_
*1667 _1231_
*1668 _1232_
*1669 _1233_
*1670 _1234_
*1671 _1235_
*1672 _1236_
*1673 _1237_
*1674 _1238_
*1675 _1239_
*1676 _1240_
*1677 _1241_
*1678 _1242_
*1679 _1243_
*1680 _1244_
*1681 _1245_
*1682 _1246_
*1683 _1247_
*1684 _1248_
*1685 _1249_
*1686 _1250_
*1687 _1251_
*1688 _1252_
*1689 _1253_
*1690 _1254_
*1691 _1255_
*1692 _1256_
*1693 _1257_
*1694 _1258_